ckt7_Mon_rfi_20_der000.csv
fault_bus,fault_type,fault_R_ohm,Va_mag_pu,Va_ang_deg,Vb_mag_pu,Vb_ang_deg,Vc_mag_pu,Vc_ang_deg,Ia_mag_A,Ia_ang_deg,Ib_mag_A,Ib_ang_deg,Ic_mag_A,Ic_ang_deg
318412,SLG,0,0.124643,-118.2339,1.03453,-151.8632,1.032854,88.5999,1.0921,-78.6292,2.2298,-161.8344,2.5963,42.8531
318412,SLG,10,1.024751,-31.5541,1.029019,-151.1999,1.021246,88.6545,2.5755,-59.1243,2.5755,-179.1256,2.5755,60.8756
318412,SLG,20,1.024757,-31.531,1.029022,-151.1999,1.021243,88.6543,2.5755,-59.1167,2.5755,-179.1181,2.5755,60.8833
318412,SLG,30,1.024759,-31.5234,1.029023,-151.1999,1.021243,88.6542,2.5755,-59.1142,2.5755,-179.1155,2.5755,60.8858
318412,SLG,40,1.02476,-31.5195,1.029023,-151.1999,1.021242,88.6542,2.5755,-59.1129,2.5755,-179.1143,2.5754,60.8871
318412,LL,0,0.116568,-114.0618,0.134204,122.5746,1.034484,88.1314,1.3785,-120.3172,0.6538,-128.0283,2.0282,57.2039
318412,LL,10,1.024754,-31.5536,1.029005,-151.2459,1.021242,88.6546,2.5755,-59.1396,2.5755,-179.1409,2.5755,60.8606
318412,LL,20,1.024759,-31.5308,1.029015,-151.2229,1.021242,88.6543,2.5755,-59.1244,2.5755,-179.1257,2.5755,60.8758
318412,LL,30,1.02476,-31.5232,1.029018,-151.2152,1.021242,88.6543,2.5755,-59.1193,2.5755,-179.1207,2.5755,60.8808
318412,LL,40,1.024761,-31.5194,1.029019,-151.2114,1.021241,88.6542,2.5755,-59.1167,2.5755,-179.1181,2.5755,60.8833
318412,3LG,0,0.128167,-113.6972,0.128714,126.6144,0.127725,6.4819,0.3308,-141.229,0.3314,98.7416,0.331,-21.3403
318412,3LG,10,1.024749,-31.5536,1.02901,-151.2455,1.021227,88.6084,2.5756,-59.1547,2.5755,-179.1561,2.5755,60.8453
318412,3LG,20,1.024756,-31.5308,1.029017,-151.2227,1.021234,88.6313,2.5755,-59.1319,2.5755,-179.1333,2.5755,60.8681
318412,3LG,30,1.024759,-31.5232,1.029019,-151.2151,1.021237,88.6389,2.5755,-59.1243,2.5755,-179.1257,2.5755,60.8757
318412,3LG,40,1.02476,-31.5194,1.029021,-151.2113,1.021238,88.6427,2.5755,-59.1205,2.5755,-179.1219,2.5755,60.8795
243937,SLG,0,0.012427,104.7126,1.322929,172.8191,1.726169,102.5404,2.4593,-70.6265,2.4934,178.1095,2.796,53.1657
243937,SLG,10,1.018098,-31.664,1.031349,-151.459,1.024214,88.899,2.5766,-59.1651,2.5766,-179.1659,2.5766,60.8343
243937,SLG,20,1.021422,-31.5862,1.03019,-151.3299,1.022727,88.7772,2.5761,-59.1372,2.5761,-179.1383,2.576,60.8625
243937,SLG,30,1.022534,-31.5602,1.029802,-151.2867,1.022232,88.7363,2.5759,-59.1279,2.5759,-179.1291,2.5758,60.872
243937,SLG,40,1.02309,-31.5472,1.029608,-151.265,1.021984,88.7158,2.5758,-59.1232,2.5758,-179.1244,2.5757,60.8767
243937,LL,0,0.022287,-37.1921,0.037255,96.4519,1.47005,83.3643,1.7852,-122.811,1.6251,-125.4786,3.4094,55.9177
243937,LL,10,1.021049,-31.4206,1.024731,-151.6125,1.026494,88.641,2.5778,-59.2215,2.5777,-179.222,2.5777,60.7791
243937,LL,20,1.022895,-31.4639,1.026869,-151.4068,1.023883,88.6476,2.5767,-59.1654,2.5766,-179.1664,2.5766,60.8349
243937,LL,30,1.023515,-31.4785,1.027586,-151.338,1.023006,88.6498,2.5763,-59.1466,2.5762,-179.1478,2.5762,60.8535
243937,LL,40,1.023826,-31.4858,1.027945,-151.3035,1.022566,88.6509,2.5761,-59.1373,2.576,-179.1385,2.576,60.8629
243937,3LG,0,0.031896,-96.6255,0.032016,143.687,0.031777,23.5374,0.0823,-124.1632,0.0825,115.8065,0.0823,-4.2711
243937,3LG,10,1.023376,-31.678,1.027636,-151.369,1.019846,88.4842,2.579,-59.2771,2.5789,-179.2785,2.5789,60.7229
243937,3LG,20,1.02407,-31.593,1.028331,-151.2845,1.020544,88.5691,2.5772,-59.1931,2.5772,-179.1946,2.5772,60.8069
243937,3LG,30,1.024302,-31.5647,1.028562,-151.2563,1.020777,88.5974,2.5767,-59.1651,2.5766,-179.1666,2.5766,60.8349
243937,3LG,40,1.024417,-31.5505,1.028678,-151.2422,1.020893,88.6116,2.5764,-59.1511,2.5763,-179.1526,2.5763,60.8489
157347,SLG,0,0.398922,-24.0006,1.083152,-170.0372,1.337532,95.5534,2.6902,-63.2141,2.7587,-179.8847,2.861,57.2832
157347,SLG,10,1.016208,-31.9972,1.034038,-151.4286,1.022414,89.0144,2.5775,-59.2263,2.5775,-179.2267,2.5775,60.7726
157347,SLG,20,1.020484,-31.7548,1.031559,-151.3141,1.021802,88.8356,2.5765,-59.1682,2.5765,-179.169,2.5765,60.8313
157347,SLG,30,1.02191,-31.673,1.03072,-151.276,1.021609,88.7754,2.5762,-59.1486,2.5762,-179.1496,2.5761,60.851
157347,SLG,40,1.022623,-31.6319,1.030299,-151.257,1.021515,88.7452,2.576,-59.1388,2.576,-179.1399,2.5759,60.861
157347,LL,0,0.501305,-33.1167,0.336758,-163.2349,1.244172,83.3584,2.0724,-90.4502,1.8183,-158.0067,3.237,58.2731
157347,LL,10,1.017381,-31.6364,1.025485,-151.9143,1.027392,88.7843,2.5795,-59.3457,2.5794,-179.3452,2.5795,60.6558
157347,LL,20,1.021031,-31.5736,1.027287,-151.5594,1.024335,88.7216,2.5775,-59.228,2.5774,-179.2286,2.5774,60.7727
157347,LL,30,1.022266,-31.552,1.027874,-151.44,1.023307,88.6997,2.5768,-59.1885,2.5768,-179.1894,2.5768,60.8119
157347,LL,40,1.022887,-31.5411,1.028164,-151.3802,1.022792,88.6885,2.5765,-59.1687,2.5765,-179.1697,2.5764,60.8316
157347,3LG,0,0.441334,-43.5383,0.443017,-163.2337,0.439732,76.6232,1.1389,-71.0786,1.141,168.8897,1.1394,48.8132
157347,3LG,10,1.022365,-31.8653,1.026628,-151.5564,1.018839,88.2968,2.5815,-59.4633,2.5814,-179.4648,2.5814,60.5367
157347,3LG,20,1.023572,-31.6872,1.027834,-151.3787,1.020049,88.4749,2.5785,-59.2868,2.5784,-179.2882,2.5784,60.7133
157347,3LG,30,1.023971,-31.6276,1.028233,-151.3192,1.020448,88.5345,2.5775,-59.2277,2.5774,-179.2291,2.5774,60.7724
157347,3LG,40,1.02417,-31.5978,1.028431,-151.2894,1.020647,88.5643,2.577,-59.1981,2.577,-179.1995,2.5769,60.802
298162,SLG,0,0.016586,131.4521,1.220403,-172.8781,1.394543,101.2584,2.1002,-68.4968,2.5166,-172.9891,2.8458,52.6145
298162,SLG,10,1.00845,-32.9813,1.041605,-151.4258,1.018688,89.3839,2.581,-59.4227,2.5811,-179.4236,2.581,60.5739
298162,SLG,20,1.01663,-32.25,1.035388,-151.3099,1.019849,89.0203,2.5782,-59.268,2.5782,-179.2683,2.5782,60.7305
298162,SLG,30,1.019347,-32.0039,1.033283,-151.2725,1.020287,88.8985,2.5773,-59.2155,2.5773,-179.216,2.5773,60.7836
298162,SLG,40,1.020703,-31.8804,1.032225,-151.2541,1.020516,88.8375,2.5768,-59.1891,2.5768,-179.1897,2.5768,60.8102
298162,LL,0,0.009837,47.2122,0.01713,77.8425,1.341786,85.3912,1.5109,-121.8865,1.4798,-122.3003,2.9906,57.9087
298162,LL,10,1.005793,-32.2458,1.025175,-152.8875,1.031278,89.1482,2.5864,-59.7485,2.5862,-179.743,2.5865,60.2577
298162,LL,20,1.015175,-31.8832,1.027232,-152.0485,1.026241,88.9098,2.5808,-59.4305,2.5808,-179.4292,2.5809,60.5718
298162,LL,30,1.018348,-31.7596,1.02786,-151.7667,1.024569,88.8265,2.579,-59.3237,2.579,-179.3235,2.579,60.6776
298162,LL,40,1.019944,-31.6972,1.028162,-151.6254,1.023735,88.7842,2.5782,-59.2702,2.5781,-179.2705,2.5781,60.7307
298162,3LG,0,0.00579,-102.16,0.005807,138.0883,0.00577,17.9576,0.0149,-129.736,0.015,110.2262,0.0149,-9.8312
298162,3LG,10,1.018257,-32.4737,1.022553,-152.1661,1.014773,87.6885,2.5917,-60.0674,2.5916,179.9312,2.5916,59.9327
298162,3LG,20,1.021538,-31.9922,1.025817,-151.6844,1.018036,88.1699,2.5835,-59.5896,2.5835,-179.591,2.5834,60.4104
298162,3LG,30,1.02262,-31.8311,1.026893,-151.5232,1.019111,88.331,2.5808,-59.4297,2.5808,-179.4312,2.5807,60.5703
298162,3LG,40,1.023158,-31.7505,1.027428,-151.4425,1.019646,88.4117,2.5795,-59.3497,2.5794,-179.3511,2.5794,60.6503
165448,SLG,0,0.016459,131.6881,1.225113,-172.5067,1.387031,101.4761,2.0935,-67.8517,2.5273,-172.8999,2.8324,52.6423
165448,SLG,10,1.007603,-33.1088,1.042596,-151.4174,1.018072,89.4283,2.5814,-59.4463,2.5816,-179.4475,2.5815,60.55
165448,SLG,20,1.016215,-32.3146,1.035892,-151.305,1.019523,89.0424,2.5784,-59.2802,2.5785,-179.2804,2.5784,60.7182
165448,SLG,30,1.019072,-32.0471,1.033621,-151.2691,1.020065,88.9132,2.5774,-59.2237,2.5774,-179.2241,2.5774,60.7753
165448,SLG,40,1.020498,-31.9128,1.032479,-151.2514,1.020348,88.8485,2.5769,-59.1953,2.5769,-179.1958,2.5769,60.804
165448,LL,0,0.009872,48.7313,0.016677,77.3009,1.340152,85.5756,1.5074,-121.7184,1.4784,-122.0992,2.9858,58.093
165448,LL,10,1.004317,-32.3277,1.025288,-153.0054,1.031669,89.1993,2.5872,-59.7975,2.587,-179.7913,2.5874,60.2094
165448,LL,20,1.014427,-31.9254,1.027313,-152.1079,1.026425,88.9366,2.5813,-59.4553,2.5812,-179.4537,2.5813,60.5472
165448,LL,30,1.017847,-31.788,1.027919,-151.8064,1.024689,88.8446,2.5793,-59.3403,2.5793,-179.3399,2.5793,60.6611
165448,LL,40,1.019567,-31.7186,1.028209,-151.6552,1.023824,88.7979,2.5784,-59.2827,2.5783,-179.2828,2.5783,60.7183
165448,3LG,0,0.005376,-102.2134,0.00539,138.0285,0.005357,17.9002,0.0139,-129.7931,0.0139,110.1685,0.0139,-9.8871
165448,3LG,10,1.017755,-32.5479,1.022058,-152.2408,1.014279,87.6143,2.5929,-60.1412,2.5929,179.8574,2.5928,59.8589
165448,3LG,20,1.021292,-32.0296,1.025574,-151.7219,1.017794,88.1326,2.5841,-59.6267,2.5841,-179.6281,2.584,60.3733
165448,3LG,30,1.022456,-31.8561,1.026732,-151.5483,1.018951,88.3061,2.5812,-59.4545,2.5812,-179.456,2.5811,60.5455
165448,3LG,40,1.023036,-31.7692,1.027308,-151.4613,1.019526,88.393,2.5798,-59.3683,2.5797,-179.3697,2.5797,60.6317
165449,SLG,0,0.014785,131.8662,1.259781,-171.1295,1.359925,103.0101,2.1053,-64.4845,2.5931,-172.8584,2.7775,53.1409
165449,SLG,10,0.999461,-34.384,1.053033,-151.3459,1.011898,89.9069,2.5855,-59.6727,2.5857,-179.6782,2.5854,60.3201
165449,SLG,20,1.012287,-32.9626,1.041216,-151.2578,1.016165,89.2787,2.5802,-59.3976,2.5803,-179.3981,2.5802,60.5997
165449,SLG,30,1.016487,-32.4814,1.037191,-151.235,1.017767,89.0699,2.5786,-59.3029,2.5787,-179.3031,2.5786,60.6954
165449,SLG,40,1.018572,-32.2394,1.035164,-151.2249,1.018601,88.9657,2.5778,-59.255,2.5778,-179.2552,2.5778,60.7438
165449,LL,0,0.009286,55.3374,0.013446,73.9269,1.339533,86.5577,1.5033,-120.8368,1.4859,-121.039,2.9892,59.0626
165449,LL,10,0.989811,-33.1073,1.027149,-154.1945,1.036195,89.7222,2.5948,-60.273,2.5943,179.7422,2.5951,59.7431
165449,LL,20,1.007052,-32.3335,1.028602,-152.7065,1.028496,89.2153,2.5848,-59.6963,2.5846,-179.6918,2.5849,60.309
165449,LL,30,1.012907,-32.0643,1.028861,-152.2062,1.026022,89.0343,2.5816,-59.5017,2.5815,-179.4997,2.5816,60.5012
165449,LL,40,1.015853,-31.9274,1.028947,-151.9553,1.024805,88.9416,2.5801,-59.404,2.58,-179.403,2.5801,60.598
165449,3LG,0,0.003184,-103.5551,0.00319,136.6136,0.003174,16.513,0.0082,-131.1757,0.0082,108.7776,0.0082,-11.2575
165449,3LG,10,1.013438,-33.2673,1.017855,-152.9673,1.010116,86.8959,2.6036,-60.8579,2.6035,179.1407,2.6035,59.1422
165449,3LG,20,1.019196,-32.3921,1.023541,-152.0881,1.015778,87.7708,2.5892,-59.9879,2.5892,-179.9893,2.5891,60.0122
165449,3LG,30,1.021073,-32.0984,1.025391,-151.793,1.017621,88.0643,2.5846,-59.6959,2.5845,-179.6973,2.5845,60.3041
165449,3LG,40,1.022004,-31.9512,1.026308,-151.6451,1.018535,88.2114,2.5823,-59.5496,2.5822,-179.551,2.5822,60.4505
287274,SLG,0,0.069322,-58.2059,1.269104,-168.1147,1.294096,103.5645,2.209,-62.7844,2.6513,-173.7137,2.7794,54.2172
287274,SLG,10,0.989449,-35.103,1.058821,-151.3323,1.008819,90.189,2.5922,-59.7921,2.5927,-179.8047,2.5919,60.1925
287274,SLG,20,1.007337,-33.3419,1.044307,-151.2394,1.014336,89.4207,2.5834,-59.4641,2.5836,-179.4661,2.5834,60.5306
287274,SLG,30,1.013203,-32.7384,1.039286,-151.2202,1.016484,89.1644,2.5807,-59.3488,2.5808,-179.3495,2.5807,60.6481
287274,SLG,40,1.016116,-32.4338,1.036747,-151.2128,1.017615,89.0365,2.5794,-59.29,2.5795,-179.2904,2.5794,60.7078
287274,LL,0,0.106657,-51.5055,0.089384,158.2472,1.313469,87.692,1.7105,-112.834,1.3458,-129.6282,3.0241,59.7779
287274,LL,10,0.981743,-33.7401,1.028431,-155.1599,1.045888,89.7909,2.5931,-60.7761,2.5923,179.2456,2.5935,59.2496
287274,LL,20,1.000244,-32.5667,1.026609,-153.0663,1.029845,89.3711,2.5911,-59.8377,2.5909,-179.831,2.5913,60.17
287274,LL,30,1.008314,-32.2251,1.027616,-152.4484,1.026883,89.1424,2.5858,-59.5976,2.5857,-179.5944,2.5859,60.4064
287274,LL,40,1.012389,-32.0501,1.028045,-152.1378,1.025435,89.0242,2.5832,-59.4766,2.5831,-179.4747,2.5832,60.5261
287274,3LG,0,0.109663,-68.0724,0.109816,172.058,0.109369,51.9723,0.283,-95.7168,0.2833,144.2353,0.2829,24.2122
287274,3LG,10,1.005801,-33.6874,1.010313,-153.3931,1.002608,86.4769,2.6229,-61.2712,2.6228,178.7273,2.6228,58.7289
287274,3LG,20,1.01539,-32.6099,1.019789,-152.3088,1.01204,87.5538,2.5987,-60.2021,2.5986,179.7965,2.5986,59.798
287274,3LG,30,1.01854,-32.2454,1.022896,-151.9419,1.015134,87.918,2.5908,-59.8404,2.5908,-179.8418,2.5908,60.1597
287274,3LG,40,1.020105,-32.062,1.024439,-151.7574,1.016671,88.101,2.587,-59.6586,2.5869,-179.66,2.5869,60.3415
283954,SLG,0,0.075335,-59.178,1.274029,-168.0152,1.29202,103.7861,2.228,-62.6707,2.6585,-173.8799,2.7832,54.3911
283954,SLG,10,0.984388,-35.7969,1.064472,-151.3224,1.005917,90.4688,2.5949,-59.9113,2.5955,-179.9298,2.5945,60.0695
283954,SLG,20,1.004946,-33.7044,1.047317,-151.2208,1.012576,89.5591,2.5846,-59.5285,2.5848,-179.5316,2.5846,60.465
283954,SLG,30,1.011645,-32.9832,1.041317,-151.2049,1.015245,89.2559,2.5814,-59.3929,2.5816,-179.3939,2.5815,60.6034
283954,SLG,40,1.014961,-32.6185,1.038279,-151.2002,1.016661,89.1048,2.5799,-59.3235,2.58,-179.324,2.5799,60.6739
283954,LL,0,0.113521,-52.9033,0.095687,158.369,1.313887,87.8166,1.7319,-112.4757,1.3378,-130.1495,3.0339,59.8307
283954,LL,10,0.973453,-34.1348,1.028652,-155.8421,1.049092,90.0598,2.5979,-61.0383,2.5969,178.9911,2.5985,58.9961
283954,LL,20,0.996034,-32.7862,1.027114,-153.4091,1.031194,89.5224,2.5933,-59.9729,2.593,-179.964,2.5935,60.0371
283954,LL,30,1.005477,-32.3765,1.028042,-152.678,1.027732,89.2474,2.5872,-59.6889,2.587,-179.6843,2.5873,60.3164
283954,LL,40,1.010249,-32.1656,1.0284,-152.3104,1.026051,89.1045,2.5842,-59.5454,2.5841,-179.5428,2.5843,60.458
283954,3LG,0,0.116583,-68.7137,0.116709,171.3735,0.116315,51.3132,0.3009,-96.3799,0.3011,143.5686,0.3008,23.5571
283954,3LG,10,1.003158,-34.0861,1.00779,-153.8001,1.000128,86.0797,2.6294,-61.6695,2.6294,178.3291,2.6294,58.3306
283954,3LG,20,1.01412,-32.8141,1.018589,-152.517,1.010856,87.3509,2.6018,-60.4059,2.6017,179.5928,2.6017,59.5943
283954,3LG,30,1.017706,-32.3825,1.022111,-152.0817,1.014358,87.7817,2.5928,-59.9773,2.5928,-179.9787,2.5928,60.0228
283954,3LG,40,1.019485,-32.1653,1.023856,-151.8627,1.016094,87.9985,2.5885,-59.7616,2.5884,-179.763,2.5884,60.2385
283956,SLG,0,0.247335,-65.1686,1.268161,-164.6959,1.218371,103.5267,2.4749,-65.7021,2.659,-176.3995,2.923,55.9793
283956,SLG,10,0.984757,-35.7109,1.063846,-151.3272,1.006293,90.4395,2.5947,-59.8957,2.5953,-179.9134,2.5943,60.0854
283956,SLG,20,1.005027,-33.6817,1.047148,-151.2229,1.012689,89.5518,2.5845,-59.5243,2.5848,-179.5273,2.5845,60.4693
283956,SLG,30,1.011679,-32.9729,1.04124,-151.206,1.015298,89.2527,2.5814,-59.391,2.5816,-179.3919,2.5814,60.6054
283956,SLG,40,1.01498,-32.6126,1.038235,-151.2009,1.016692,89.103,2.5799,-59.3224,2.58,-179.3229,2.5799,60.6751
283956,LL,0,0.299083,-57.9748,0.289133,165.599,1.277142,89.1976,2.0598,-102.6298,1.2472,-151.8919,3.0252,59.1669
283956,LL,10,0.974627,-34.0885,1.028088,-155.76,1.048711,90.0192,2.5976,-61.0098,2.5966,179.019,2.5982,59.0241
283956,LL,20,0.996336,-32.7727,1.026938,-153.3884,1.031118,89.5108,2.5933,-59.9655,2.593,-179.9566,2.5935,60.0445
283956,LL,30,1.005613,-32.3701,1.027958,-152.6688,1.0277,89.242,2.5872,-59.6855,2.587,-179.681,2.5873,60.3197
283956,LL,40,1.010327,-32.1619,1.028351,-152.3051,1.026033,89.1013,2.5842,-59.5435,2.5841,-179.5408,2.5842,60.4599
283956,3LG,0,0.315777,-66.6593,0.316373,173.4355,0.315092,53.3875,0.8152,-94.3097,0.816,145.6336,0.8149,25.6126
283956,3LG,10,1.003279,-34.0494,1.007899,-153.7627,1.000232,86.1163,2.6292,-61.6328,2.6291,178.3658,2.6291,58.3674
283956,3LG,20,1.014146,-32.8047,1.018612,-152.5074,1.010877,87.3603,2.6017,-60.3964,2.6017,179.6022,2.6016,59.6037
283956,3LG,30,1.017716,-32.3783,1.02212,-152.0774,1.014367,87.786,2.5928,-59.973,2.5928,-179.9744,2.5927,60.0271
283956,3LG,40,1.01949,-32.1629,1.02386,-151.8602,1.016099,88.0009,2.5884,-59.7592,2.5884,-179.7606,2.5884,60.2409
189963,SLG,0,0.018199,-24.0705,1.300661,-165.5735,1.238398,105.0562,2.038,-55.753,2.7317,-171.5462,2.6021,53.2974
189963,SLG,10,0.950471,-37.6205,1.083929,-151.6316,1.006599,90.9535,2.6082,-60.3475,2.6108,179.6005,2.6075,59.576
189963,SLG,20,0.985532,-34.5575,1.054164,-151.2053,1.008888,89.8882,2.5986,-59.6629,2.5995,-179.6751,2.5986,60.3135
189963,SLG,30,0.99861,-33.5675,1.046017,-151.1867,1.012572,89.4763,2.5907,-59.4903,2.5913,-179.4952,2.5908,60.4972
189963,SLG,40,1.005153,-33.0626,1.041853,-151.1834,1.014574,89.2702,2.5869,-59.3996,2.5872,-179.4021,2.587,60.5923
189963,LL,0,0.023704,-7.6551,0.024662,-153.2947,1.306693,89.2084,1.4571,-115.8819,1.4855,-120.9082,2.9397,61.5806
189963,LL,10,0.929485,-34.9927,1.000087,-157.4165,1.05686,90.5862,2.6568,-61.5931,2.6534,178.4367,2.6563,58.485
189963,LL,20,0.977825,-33.506,1.019548,-154.5055,1.041305,89.6408,2.6073,-60.5185,2.6066,179.4935,2.6074,59.5023
189963,LL,30,0.989729,-32.7353,1.019393,-153.2422,1.029898,89.4796,2.6062,-59.9048,2.6059,-179.8981,2.6063,60.1048
189963,LL,40,0.998314,-32.4415,1.021989,-152.7374,1.027631,89.2842,2.5984,-59.7103,2.5982,-179.7058,2.5985,60.2954
189963,3LG,0,0.026689,-20.0914,0.026685,-140.0926,0.026688,99.9016,0.0689,-47.8362,0.0689,-167.8358,0.0689,72.1623
189963,3LG,10,0.975426,-35.2636,0.980395,-154.999,0.972859,84.9153,2.7026,-62.8236,2.7026,177.1754,2.7025,57.177
189963,3LG,20,0.997288,-33.3186,1.001916,-153.0313,0.994261,86.8524,2.6447,-60.8938,2.6447,179.1049,2.6446,59.1064
189963,3LG,30,1.006406,-32.7261,1.010926,-152.4317,1.003219,87.4426,2.6213,-60.3092,2.6213,179.6895,2.6212,59.6911
189963,3LG,40,1.010981,-32.4258,1.015442,-152.1278,1.007713,87.7416,2.6097,-60.013,2.6097,179.9857,2.6097,59.9872
181977,SLG,0,0.110609,-48.0668,1.284917,-164.3978,1.21196,104.3191,2.1962,-57.9256,2.7401,-173.1411,2.684,54.613
181977,SLG,10,0.946839,-37.9952,1.087311,-151.658,1.005469,91.1396,2.61,-60.4016,2.6128,179.5404,2.6091,59.5164
181977,SLG,20,0.983804,-34.7847,1.056118,-151.2028,1.0079,89.9848,2.5994,-59.7006,2.6004,-179.7145,2.5994,60.2743
181977,SLG,30,0.997475,-33.7287,1.047387,-151.181,1.011808,89.5414,2.5913,-59.5181,2.5918,-179.5236,2.5913,60.4687
181977,SLG,40,1.004311,-33.1872,1.042905,-151.1775,1.013961,89.3192,2.5873,-59.4214,2.5876,-179.4243,2.5873,60.57
181977,LL,0,0.138777,-43.2581,0.124227,-179.8962,1.286115,89.3532,1.6886,-107.6737,1.3909,-132.1479,3.0103,61.2903
181977,LL,10,0.925192,-35.1544,0.999029,-157.817,1.059228,90.7047,2.6601,-61.7333,2.6564,178.3027,2.6597,58.3547
181977,LL,20,0.975105,-33.628,1.019504,-154.7362,1.042433,89.7314,2.6089,-60.6034,2.6081,179.4106,2.6091,59.4203
181977,LL,30,0.987857,-32.8277,1.019519,-153.3991,1.030563,89.5465,2.6072,-59.9645,2.6068,-179.9569,2.6073,60.0464
181977,LL,40,0.996868,-32.5151,1.022138,-152.8572,1.028108,89.3372,2.5991,-59.7565,2.5989,-179.7514,2.5992,60.2501
181977,3LG,0,0.141208,-52.8439,0.141257,-172.8314,0.141171,67.1689,0.3647,-80.5708,0.3647,159.42,0.3646,39.4171
181977,3LG,10,0.973779,-35.4895,0.978797,-155.2327,0.971339,84.6886,2.707,-63.051,2.7069,176.948,2.7069,56.9496
181977,3LG,20,0.996434,-33.449,1.001107,-153.1656,0.993481,86.7225,2.6469,-61.0245,2.6468,178.9741,2.6468,58.9757
181977,3LG,30,1.005826,-32.8174,1.010382,-152.5255,1.002692,87.352,2.6227,-60.4004,2.6227,179.5982,2.6226,59.5998
181977,3LG,40,1.010543,-32.4958,1.015032,-152.1998,1.007314,87.672,2.6108,-60.0831,2.6107,179.9156,2.6107,59.9171
181924,SLG,0,0.004996,-15.1554,1.308782,-166.3855,1.257073,105.4183,2.0525,-56.3927,2.7249,-171.7313,2.6174,53.4005
181924,SLG,10,0.937937,-39.1817,1.096614,-151.6724,1.001462,91.6248,2.6154,-60.5834,2.6185,179.3367,2.6138,59.3169
181924,SLG,20,0.979665,-35.3868,1.06092,-151.185,1.005287,90.2176,2.6017,-59.8036,2.6027,-179.8226,2.6015,60.1669
181924,SLG,30,0.994787,-34.1329,1.05066,-151.1616,1.009914,89.694,2.5926,-59.589,2.5933,-179.5966,2.5927,60.3957
181924,SLG,40,1.002323,-33.4909,1.04537,-151.1606,1.012488,89.4324,2.5882,-59.4756,2.5887,-179.4794,2.5883,60.5146
181924,LL,0,0.006417,-10.2589,0.005687,-148.6228,1.316332,89.0189,1.474,-117.9951,1.4807,-119.2229,2.9545,61.3896
181924,LL,10,0.911893,-35.8099,0.99818,-158.9484,1.064735,91.089,2.6702,-62.1753,2.6652,177.8795,2.6699,57.9435
181924,LL,20,0.96811,-33.9869,1.019815,-155.3058,1.044859,89.964,2.6132,-60.8284,2.612,179.1907,2.6134,59.2031
181924,LL,30,0.983193,-33.0752,1.019922,-153.7766,1.032026,89.7101,2.6098,-60.1153,2.6094,179.8949,2.61,59.8992
181924,LL,40,0.993354,-32.7036,1.022509,-153.1399,1.029155,89.463,2.601,-59.8698,2.6008,-179.8631,2.6012,60.1388
181924,3LG,0,0.006534,-20.7546,0.006537,-140.7302,0.006534,99.2634,0.0169,-48.4811,0.0169,-168.4788,0.0169,71.5112
181924,3LG,10,0.968804,-36.1779,0.973892,-155.9306,0.966552,84.0006,2.7205,-63.7384,2.7204,176.2607,2.7204,56.2623
181924,3LG,20,0.994122,-33.7927,0.99885,-153.5136,0.99127,86.3801,2.6528,-61.367,2.6528,178.6317,2.6527,58.6333
181924,3LG,30,1.00432,-33.0463,1.008916,-152.7573,1.001255,87.124,2.6265,-60.6284,2.6265,179.3702,2.6264,59.3717
181924,3LG,40,1.009427,-32.6675,1.013949,-152.3736,1.00625,87.5012,2.6136,-60.2539,2.6135,179.7447,2.6135,59.7462
181993,SLG,0,0.000782,176.4762,1.311884,-166.6724,1.263733,105.5543,2.0558,-56.7152,2.7203,-171.7885,2.6242,53.4136
181993,SLG,10,0.932563,-39.8856,1.102323,-151.6957,0.999299,91.9302,2.6185,-60.6872,2.6219,179.2187,2.6165,59.2023
181993,SLG,20,0.977117,-35.7649,1.064019,-151.1778,1.003682,90.37,2.603,-59.8669,2.6041,-179.8896,2.6027,60.1008
181993,SLG,30,0.993135,-34.391,1.05279,-151.1511,1.008713,89.7945,2.5935,-59.6337,2.5941,-179.6428,2.5934,60.3497
181993,SLG,40,1.001103,-33.6866,1.046985,-151.1506,1.011539,89.5071,2.5888,-59.5101,2.5893,-179.5146,2.5889,60.4793
181993,LL,0,0.000413,-13.5796,0.00141,110.1117,1.320143,88.9649,1.4815,-118.6497,1.4768,-118.75,2.9582,61.3002
181993,LL,10,0.904406,-36.1713,0.99741,-159.6331,1.068372,91.3011,2.6758,-62.4376,2.6702,177.6311,2.6758,57.7017
181993,LL,20,0.963918,-34.2031,1.020036,-155.6653,1.046484,90.1059,2.6156,-60.9687,2.6143,179.0542,2.6159,59.0682
181993,LL,30,0.980322,-33.2289,1.020235,-154.0193,1.033017,89.8134,2.6114,-60.211,2.6108,179.801,2.6116,59.806
181993,LL,40,0.991171,-32.8225,1.022806,-153.3229,1.029861,89.5437,2.6022,-59.9425,2.6018,-179.9346,2.6023,60.0677
181993,3LG,0,0.000968,-88.0627,0.000968,151.9601,0.000968,31.9248,0.0025,-115.7985,0.0025,124.2066,0.0025,4.1868
181993,3LG,10,0.966103,-36.5926,0.971195,-156.3488,0.963923,83.5851,2.728,-64.1524,2.7279,175.8467,2.7279,55.8484
181993,3LG,20,0.992831,-34.009,0.997574,-153.7317,0.990023,86.164,2.6562,-61.5826,2.6561,178.4161,2.6561,58.4178
181993,3LG,30,1.003475,-33.1925,1.008085,-152.9046,1.000441,86.9782,2.6287,-60.774,2.6286,179.2246,2.6286,59.2262
181993,3LG,40,1.0088,-32.7779,1.013333,-152.4848,1.005647,87.3912,2.6151,-60.3638,2.6151,179.6348,2.6151,59.6364
181994,SLG,0,0.000763,174.481,1.310343,-166.6563,1.263295,105.4908,2.0521,-56.7675,2.7182,-171.7581,2.6242,53.3775
181994,SLG,10,0.925613,-40.5846,1.107421,-151.7274,0.997583,92.2086,2.6232,-60.7915,2.6269,179.097,2.6206,59.0817
181994,SLG,20,0.97373,-36.1477,1.066858,-151.1744,1.002268,90.5113,2.6052,-59.934,2.6064,-179.9613,2.6047,60.0295
181994,SLG,30,0.990916,-34.6538,1.054752,-151.143,1.00763,89.8878,2.5948,-59.6818,2.5955,-179.6928,2.5947,60.2996
181994,SLG,40,0.999457,-33.8865,1.048477,-151.1422,1.010675,89.5765,2.5898,-59.5474,2.5903,-179.553,2.5898,60.4408
181994,LL,0,0.000383,-9.0587,0.001322,108.5248,1.319444,88.9495,1.4802,-118.669,1.4758,-118.7595,2.956,61.2857
181994,LL,10,0.895907,-36.5537,0.994323,-160.3232,1.071791,91.4776,2.6849,-62.7158,2.6782,177.3671,2.6849,57.4494
181994,LL,20,0.959115,-34.4347,1.0191,-156.0334,1.048026,90.2319,2.6197,-61.1205,2.6181,178.9065,2.62,58.923
181994,LL,30,0.977019,-33.3943,1.019788,-154.269,1.033958,89.907,2.614,-60.3153,2.6133,179.6987,2.6142,59.7047
181994,LL,40,0.988656,-32.9506,1.022539,-153.5115,1.030528,89.6172,2.6041,-60.0218,2.6037,179.9873,2.6042,59.9901
181994,3LG,0,0.000888,-88.7544,0.000888,151.2824,0.000888,31.2404,0.0023,-116.4811,0.0023,123.5262,0.0023,3.496
181994,3LG,10,0.961617,-37.0402,0.966695,-156.7983,0.959489,83.1376,2.7405,-64.597,2.7405,175.4021,2.7405,55.4038
181994,3LG,20,0.99062,-34.2457,0.99537,-153.9696,0.987848,85.9279,2.662,-61.8173,2.6619,178.1814,2.6619,58.183
181994,3LG,30,1.00201,-33.3532,1.006629,-153.0661,0.999002,86.818,2.6324,-60.9333,2.6324,179.0654,2.6323,59.0669
181994,3LG,40,1.007705,-32.8995,1.012247,-152.607,1.004573,87.27,2.6179,-60.4843,2.6179,179.5144,2.6178,59.5159
181891,SLG,0,0.24596,-32.4581,1.237282,-163.4496,1.193451,102.0253,2.4589,-57.6553,2.8247,-175.3317,2.7519,56.9753
181891,SLG,10,0.934919,-38.851,1.095291,-151.7879,1.003998,91.6128,2.6162,-60.5191,2.6195,179.4065,2.6149,59.3804
181891,SLG,20,0.97846,-35.3277,1.060838,-151.2218,1.005897,90.2318,2.6022,-59.7906,2.6033,-179.8094,2.602,60.1793
181891,SLG,30,0.994118,-34.1186,1.050759,-151.178,1.010129,89.7063,2.5929,-59.585,2.5935,-179.5926,2.5929,60.3993
181891,SLG,40,1.001882,-33.4897,1.045499,-151.1695,1.012573,89.4424,2.5884,-59.4744,2.5889,-179.4783,2.5885,60.5155
181891,LL,0,0.262633,-33.0753,0.244141,-155.9085,1.248075,88.8104,1.7488,-97.4243,1.6387,-141.5958,3.1392,61.2452
181891,LL,10,0.914018,-35.4624,0.992384,-158.8015,1.065765,90.9162,2.672,-62.0695,2.667,177.9826,2.6716,58.0486
181891,LL,20,0.968187,-33.8978,1.018064,-155.3025,1.045498,89.9271,2.614,-60.8094,2.6129,179.2097,2.6142,59.2224
181891,LL,30,0.983029,-33.0405,1.019117,-153.7883,1.032403,89.699,2.6103,-60.1109,2.6098,179.8993,2.6105,59.9038
181891,LL,40,0.993164,-32.6874,1.022048,-153.1532,1.029406,89.4596,2.6014,-59.8698,2.6011,-179.863,2.6015,60.139
181891,3LG,0,0.257058,-35.6966,0.257419,-155.5852,0.25676,84.3621,0.6637,-63.367,0.6641,176.626,0.6638,56.5941
181891,3LG,10,0.967948,-36.0609,0.972824,-155.808,0.965545,84.1084,2.7232,-63.6218,2.7232,176.3773,2.7231,56.379
181891,3LG,20,0.993753,-33.7765,0.998395,-153.4961,0.990855,86.3921,2.6539,-61.3513,2.6538,178.6474,2.6538,58.649
181891,3LG,30,1.004101,-33.0453,1.008647,-152.7556,1.001012,87.1225,2.6271,-60.6278,2.6271,179.3708,2.6271,59.3724
181891,3LG,40,1.009276,-32.6705,1.013762,-152.3761,1.006083,87.4965,2.614,-60.2572,2.6139,179.7415,2.6139,59.743
255335,SLG,0,0.015998,-53.8191,1.307555,-165.8949,1.245829,105.3951,2.056,-56.4247,2.7253,-171.7566,2.6191,53.4394
255335,SLG,10,0.909337,-41.5807,1.114802,-151.7927,0.995486,92.6227,2.6347,-60.9081,2.6399,178.9492,2.6316,58.9229
255335,SLG,20,0.970015,-36.9733,1.078038,-151.4324,1.006284,90.5523,2.5962,-60.258,2.5979,179.7056,2.5956,59.6927
255335,SLG,30,0.985299,-35.0583,1.057817,-151.1347,1.006008,90.0364,2.5986,-59.7506,2.5995,-179.7659,2.5985,60.225
255335,SLG,40,0.995245,-34.197,1.050832,-151.1318,1.009355,89.6878,2.5926,-59.6021,2.5932,-179.61,2.5926,60.3825
255335,LL,0,0.020003,-32.3387,0.023101,-179.3161,1.312097,89.2166,1.4937,-116.3867,1.4607,-120.8143,2.9522,61.4241
255335,LL,10,0.878091,-37.0779,0.98294,-161.3174,1.076995,91.7122,2.71,-63.0923,2.7007,177.0025,2.7092,57.1241
255335,LL,20,0.948763,-34.7752,1.014237,-156.5941,1.050514,90.4181,2.6316,-61.3419,2.6294,178.6895,2.6318,58.7144
255335,LL,30,0.969823,-33.6432,1.016838,-154.6562,1.035499,90.0496,2.6218,-60.4713,2.6209,179.5451,2.622,59.5544
255335,LL,40,0.983143,-33.146,1.020441,-153.8063,1.031628,89.731,2.6098,-60.142,2.6093,179.8687,2.61,59.8731
255335,3LG,0,0.02386,-44.6549,0.023902,-164.598,0.023865,75.3792,0.0616,-72.3556,0.0617,167.6499,0.0617,47.6047
255335,3LG,10,0.948851,-37.6838,0.953863,-157.4436,0.946792,82.494,2.7771,-65.232,2.777,174.7672,2.777,54.7689
255335,3LG,20,0.984055,-34.6036,0.988796,-154.3288,0.981338,85.5709,2.6795,-62.1692,2.6794,177.8296,2.6794,57.8312
255335,3LG,30,0.997597,-33.6002,1.002216,-153.314,0.99463,86.572,2.6439,-61.1757,2.6438,178.8229,2.6438,58.8245
255335,3LG,40,1.004384,-33.0879,1.008928,-152.7961,1.001283,87.0824,2.6264,-60.6692,2.6264,179.3295,2.6263,59.3311
182030,SLG,0,0.05605,-52.5556,1.299733,-165.2832,1.231792,105.0438,2.1161,-57.2423,2.7288,-172.3629,2.6498,53.9446
182030,SLG,10,0.909429,-41.4778,1.114216,-151.8058,0.995975,92.5983,2.6345,-60.8912,2.6396,178.9688,2.6315,58.9412
182030,SLG,20,0.97,-36.9457,1.077884,-151.4376,1.006446,90.5471,2.5962,-60.2528,2.5978,179.7111,2.5956,59.698
182030,SLG,30,0.985284,-35.0458,1.057749,-151.1374,1.006086,90.0344,2.5986,-59.7482,2.5995,-179.7634,2.5985,60.2274
182030,SLG,40,0.995234,-34.1899,1.050793,-151.1334,1.009401,89.6868,2.5926,-59.6008,2.5932,-179.6086,2.5926,60.3839
182030,LL,0,0.068205,-39.034,0.07199,-179.8965,1.302671,89.3418,1.5662,-112.1471,1.4308,-125.8802,2.9755,61.2978
182030,LL,10,0.878978,-37.0054,0.982347,-161.2358,1.076808,91.6755,2.7096,-63.055,2.7004,177.0375,2.7088,57.159
182030,LL,20,0.948997,-34.7529,1.014015,-156.5737,1.050508,90.4063,2.6315,-61.3318,2.6294,178.6993,2.6317,58.7242
182030,LL,30,0.969924,-33.6326,1.016728,-154.6474,1.035507,90.0441,2.6218,-60.4667,2.6208,179.5496,2.622,59.5589
182030,LL,40,0.9832,-33.1398,1.020375,-153.8014,1.031635,89.7278,2.6098,-60.1394,2.6093,179.8713,2.61,59.8757
182030,3LG,0,0.076265,-48.9776,0.076404,-168.8991,0.076254,71.0669,0.197,-76.6658,0.1971,163.3375,0.1971,43.2911
182030,3LG,10,0.948958,-37.6309,0.953954,-157.39,0.946881,82.5464,2.7768,-65.1791,2.7767,174.8201,2.7768,54.8218
182030,3LG,20,0.98407,-34.5897,0.988805,-154.3148,0.981349,85.5846,2.6795,-62.1553,2.6794,177.8435,2.6794,57.8451
182030,3LG,30,0.997602,-33.5939,1.002218,-153.3077,0.994633,86.5781,2.6439,-61.1695,2.6438,178.8292,2.6438,58.8308
182030,3LG,40,1.004386,-33.0844,1.008928,-152.7925,1.001284,87.0859,2.6264,-60.6656,2.6264,179.3331,2.6263,59.3346
182153,SLG,0,0.000342,-129.0638,1.315027,-163.9013,1.200326,105.7702,1.9473,-52.8302,2.752,-170.4551,2.529,52.5612
182153,SLG,10,0.857865,-43.3061,1.127818,-151.9207,0.992163,93.3637,2.6732,-60.9643,2.6856,178.8291,2.6711,58.7021
182153,SLG,20,0.936785,-37.7996,1.079582,-151.1941,0.996562,91.1668,2.6324,-60.1443,2.636,179.7928,2.6317,59.7553
182153,SLG,30,0.965685,-35.8261,1.063824,-151.1281,1.002982,90.3345,2.6132,-59.8552,2.6151,-179.8834,2.613,60.0946
182153,SLG,40,0.980331,-34.7936,1.055514,-151.1182,1.006841,89.9139,2.6036,-59.6907,2.6049,-179.7061,2.6036,60.2782
182153,LL,0,0.000293,-51.8966,0.000652,132.8252,1.299925,90.1257,1.4481,-117.508,1.4457,-117.5778,2.8938,62.4571
182153,LL,10,0.825161,-37.93,0.937571,-163.0442,1.086449,92.0998,2.8043,-63.6285,2.7846,176.4108,2.7962,56.7412
182153,LL,20,0.91698,-35.3756,0.991574,-157.6431,1.055514,90.7607,2.6778,-61.7085,2.6734,178.3136,2.6765,58.3851
182153,LL,30,0.947415,-34.0956,1.002069,-155.3988,1.038701,90.3221,2.6525,-60.7428,2.6507,179.2709,2.6521,59.2989
182153,LL,40,0.96584,-33.5067,1.009499,-154.3786,1.033944,89.9525,2.6327,-60.3562,2.6317,179.654,2.6326,59.6677
182153,3LG,0,0.000545,-78.7016,0.000546,161.3528,0.000545,41.3254,0.0014,-106.396,0.0014,133.606,0.0014,13.5394
182153,3LG,10,0.902262,-38.7791,0.907097,-158.5466,0.900447,81.4008,2.9197,-66.3064,2.9196,173.6934,2.9197,53.6951
182153,3LG,20,0.958792,-35.2558,0.963495,-154.9859,0.956257,84.9215,2.7493,-62.8011,2.7492,177.198,2.7492,57.1996
182153,3LG,30,0.98029,-34.0607,0.9849,-153.7778,0.977458,86.114,2.6899,-61.62,2.6898,178.3788,2.6898,58.3804
182153,3LG,40,0.991229,-33.4433,0.995775,-153.154,0.988236,86.7293,2.6607,-61.0114,2.6607,178.9875,2.6607,58.989
182158,SLG,0,0.000305,-99.1928,1.315679,-163.6378,1.194285,105.8004,1.9381,-52.423,2.7556,-170.3346,2.5199,52.4831
182158,SLG,10,0.842848,-43.9948,1.133258,-151.9926,0.991187,93.684,2.6838,-60.9971,2.6986,178.7748,2.682,58.6144
182158,SLG,20,0.928317,-38.2295,1.08308,-151.2094,0.995192,91.3534,2.6384,-60.1939,2.6427,179.7336,2.6377,59.6879
182158,SLG,30,0.959851,-36.1342,1.066342,-151.1301,1.001807,90.4623,2.6173,-59.8979,2.6195,-179.9309,2.6171,60.0431
182158,SLG,40,0.975891,-35.0331,1.057473,-151.1159,1.005851,90.0106,2.6067,-59.7266,2.6082,-179.7449,2.6067,60.2369
182158,LL,0,0.000369,-61.1023,0.000511,141.975,1.298246,90.2534,1.4454,-117.3819,1.4433,-117.4468,2.8887,62.5856
182158,LL,10,0.809768,-38.2379,0.925377,-163.746,1.090667,92.243,2.8317,-63.8526,2.8078,176.1712,2.8208,56.5797
182158,LL,20,0.9073,-35.6004,0.985633,-158.0691,1.057751,90.896,2.6911,-61.8568,2.6857,178.1632,2.6892,58.2524
182158,LL,30,0.940485,-34.2676,0.99828,-155.7003,1.040131,90.4318,2.6612,-60.8519,2.659,179.1613,2.6607,59.1966
182158,LL,40,0.96045,-33.645,1.006733,-154.6109,1.034976,90.0425,2.6392,-60.4421,2.638,179.5681,2.639,59.5856
182158,3LG,0,0.000498,-77.7374,0.000499,162.3227,0.000498,42.2925,0.0013,-105.4246,0.0013,134.5734,0.0013,14.5018
182158,3LG,10,0.889705,-39.2121,0.894478,-158.9844,0.887987,80.9655,2.9609,-66.7388,2.9608,173.2611,2.9608,53.2629
182158,3LG,20,0.951852,-35.5126,0.956544,-155.2458,0.949391,84.6644,2.7691,-63.054,2.769,176.9451,2.769,56.9468
182158,3LG,30,0.975507,-34.2419,0.980117,-153.9612,0.972731,85.9329,2.7029,-61.7978,2.7028,178.2011,2.7028,58.2028
182158,3LG,40,0.987584,-33.5832,0.992132,-153.2954,0.984635,86.5896,2.6704,-61.1482,2.6703,178.8506,2.6703,58.8522
182162,SLG,0,0.000298,-84.7545,1.316326,-163.4712,1.190519,105.8308,2145.9735,-84.7267,2.7582,-170.2596,2.514,52.4394
182162,SLG,10,0.828794,-44.678,1.138683,-152.0721,0.990412,94.0071,599.2799,-44.7505,2.7108,178.7232,2.692,58.5291
182162,SLG,20,0.924819,-38.904,1.093467,-151.4835,0.999948,91.3601,335.3607,-39.0691,2.6341,179.4444,2.6283,59.3884
182162,SLG,30,0.954328,-36.4433,1.06889,-151.1343,1.000664,90.5929,231.4309,-36.702,2.6237,-179.9783,2.6209,59.9919
182162,SLG,40,0.971684,-35.2738,1.059458,-151.1151,1.004878,90.1094,177.2706,-35.6234,2.6112,-179.7837,2.6096,60.1957
182162,LL,0,0.000391,-63.0799,0.000433,147.3811,1.297301,90.3404,2818.3233,-63.1037,3118.9632,147.4075,2.8858,62.6733
182162,LL,10,0.795514,-38.5341,0.914127,-164.4463,1.094985,92.3764,575.3145,-38.6568,660.7966,-164.5286,2.8437,56.4221
182162,LL,20,0.898169,-35.8198,0.98016,-158.4972,1.060077,91.028,325.7493,-36.0297,355.3113,-158.6706,2.7011,58.1207
182162,LL,30,0.933902,-34.437,0.994811,-156.0042,1.041624,90.5404,226.5143,-34.7385,241.1606,-156.2714,2.6686,59.0946
182162,LL,40,0.955312,-33.7818,1.004212,-154.8454,1.036055,90.1322,174.312,-34.1731,183.1335,-155.2037,2.645,59.5035
182162,3LG,0,0.000459,-77.1248,0.00046,162.9403,0.000459,42.9069,3304.36,-77.1248,3314.4837,162.9403,3305.7982,42.9069
182162,3LG,10,0.878216,-39.6439,0.882927,-159.4211,0.876587,80.5312,634.9378,-39.769,638.3246,-159.5464,633.7614,80.4051
182162,3LG,20,0.945445,-35.7696,0.950126,-155.5058,0.943057,84.4069,342.8135,-35.985,344.4925,-155.7221,341.9498,84.1897
182162,3LG,30,0.971079,-34.4236,0.97569,-154.145,0.968359,85.7512,235.4551,-34.7292,236.5555,-154.452,234.7986,85.443
182162,3LG,40,0.984204,-33.7235,0.988757,-153.4374,0.9813,86.4495,179.5255,-34.1192,180.3387,-153.8351,178.999,86.0503
